11

 C     0.049030    -0.002092     0.032503
 H     0.086612     0.018273     1.114554
 H     0.963708    -0.008372    -0.546374
 C    -1.113525    -0.019061    -0.581301
 O    -2.149314    -0.034264    -1.128531
 C    -0.087150     910.038005     0.018490
 C     0.121673     910.254510     1.314914
 H     0.709549     909.70879    -0.644438
 H    -1.065541     910.175269    -0.436016
 H     1.099578     910.115564     1.770360
 H    -0.675975     910.581512     1.977798
