./pred.pdb
 OpenBabel04032522503D

 63 67  0  0  1  0  0  0  0  0999 V2000
  -20.6080   45.5730   33.5530 O   0  0  0  0  0  0  0  0  0  0  0  0
  -20.7720   44.6090   31.3860 C   0  0  2  0  0  0  0  0  0  0  0  0
  -20.8070   45.4970   29.0590 C   0  0  0  0  0  0  0  0  0  0  0  0
   -9.7840   47.9900   36.4850 C   0  0  0  0  0  0  0  0  0  0  0  0
  -20.0240   45.5010   30.3600 C   0  0  0  0  0  0  0  0  0  0  0  0
  -18.5960   44.9660   30.0750 C   0  0  0  0  0  0  0  0  0  0  0  0
  -23.7760   45.1600   25.8140 P   0  0  1  0  0  0  0  0  0  0  0  0
  -23.3820   45.2490   28.6520 P   0  0  2  0  0  0  0  0  0  0  0  0
  -21.7550   39.3300   23.0820 P   0  0  2  0  0  0  0  0  0  0  0  0
  -14.3020   46.7650   32.5560 C   0  0  0  0  0  0  0  0  0  0  0  0
  -15.7320   46.6780   32.0730 C   0  0  0  0  0  0  0  0  0  0  0  0
  -16.6380   46.2950   33.1220 N   0  0  0  0  0  0  0  0  0  0  0  0
  -16.7690   45.0290   33.5900 C   0  0  0  0  0  0  0  0  0  0  0  0
  -16.1160   44.0810   33.1470 O   0  0  0  0  0  0  0  0  0  0  0  0
  -17.7610   44.8430   34.7050 C   0  0  0  0  0  0  0  0  0  0  0  0
  -18.6910   43.6830   34.4560 C   0  0  0  0  0  0  0  0  0  0  0  0
  -19.3210   43.7320   33.1340 N   0  0  0  0  0  0  0  0  0  0  0  0
  -20.2370   44.6740   32.7840 C   0  0  0  0  0  0  0  0  0  0  0  0
  -18.9280   42.2610   25.6770 C   0  0  1  0  0  0  0  0  0  0  0  0
  -10.0840   48.2620   35.0240 C   0  0  0  0  0  0  0  0  0  0  0  0
  -15.6460   39.1260   28.0580 N   0  0  0  0  0  0  0  0  0  0  0  0
  -15.6610   39.5460   26.7790 C   0  0  0  0  0  0  0  0  0  0  0  0
  -19.2220   41.3240   24.5360 C   0  0  2  0  0  0  0  0  0  0  0  0
  -11.1030   49.3570   34.8870 C   0  0  0  0  0  0  0  0  0  0  0  0
  -18.7490   41.8650   23.3200 O   0  0  0  0  0  0  0  0  0  0  0  0
  -20.7220   41.2600   24.5530 C   0  0  2  0  0  0  0  0  0  0  0  0
  -16.6110   40.3600   26.2740 N   0  0  0  0  0  0  0  0  0  0  0  0
  -11.5370   49.3910   33.5240 N   0  0  0  0  0  0  0  0  0  0  0  0
  -21.2960   40.8680   23.3220 O   0  0  0  0  0  0  0  0  0  0  0  0
  -17.5880   40.7640   27.1350 C   0  0  0  0  0  0  0  0  0  0  0  0
  -21.0410   42.7040   24.8260 C   0  0  2  0  0  0  0  0  0  0  0  0
  -12.8430   49.4340   33.1740 C   0  0  0  0  0  0  0  0  0  0  0  0
  -20.0890   43.0810   25.8340 O   0  0  0  0  0  0  0  0  0  0  0  0
  -17.6410   40.3700   28.4630 C   0  0  0  0  0  0  0  0  0  0  0  0
  -22.4230   42.9820   25.3090 C   0  0  0  0  0  0  0  0  0  0  0  0
  -22.7620   44.3060   24.9330 O   0  0  0  0  0  0  0  0  0  0  0  0
  -13.7310   49.6100   33.9810 O   0  0  0  0  0  0  0  0  0  0  0  0
  -16.6140   39.5130   28.9290 C   0  0  0  0  0  0  0  0  0  0  0  0
  -13.1590   49.1790   31.7230 C   0  0  0  0  0  0  0  0  0  0  0  0
  -16.5810   39.0720   30.1920 N   0  0  0  0  0  0  0  0  0  0  0  0
  -18.7270   40.9320   29.0370 N   0  0  0  0  0  0  0  0  0  0  0  0
  -19.3340   41.6520   28.0870 C   0  0  0  0  0  0  0  0  0  0  0  0
  -18.6480   41.5670   26.9310 N   0  0  0  0  0  0  0  0  0  0  0  0
  -10.1590   46.8600   37.1940 C   0  0  0  0  0  0  0  0  0  0  0  0
   -9.0710   48.2690   38.5740 N   0  0  0  0  0  0  0  0  0  0  0  0
  -22.1340   45.9680   29.2860 O   0  0  0  0  0  0  0  0  0  0  0  0
   -9.7020   47.0630   38.5190 C   0  0  0  0  0  0  0  0  0  0  0  0
  -24.5630   46.1100   28.9070 O   0  5  0  0  0  0  0  0  0  0  0  0
  -10.8170   45.6800   36.8370 C   0  0  0  0  0  0  0  0  0  0  0  0
  -23.4800   43.8260   29.1040 O   0  0  0  0  0  0  0  0  0  0  0  0
   -9.1020   48.8170   37.3450 C   0  0  0  0  0  0  0  0  0  0  0  0
  -22.9510   45.2420   27.1370 O   0  0  0  0  0  0  0  0  0  0  0  0
   -9.9320   46.1170   39.5110 C   0  0  0  0  0  0  0  0  0  0  0  0
  -23.8710   46.5160   25.2220 O   0  5  0  0  0  0  0  0  0  0  0  0
  -11.0300   44.7390   37.8340 C   0  0  0  0  0  0  0  0  0  0  0  0
  -25.0330   44.4150   26.0530 O   0  0  0  0  0  0  0  0  0  0  0  0
  -10.5940   44.9560   39.1640 C   0  0  0  0  0  0  0  0  0  0  0  0
  -20.4770   38.5360   22.8720 O   0  0  0  0  0  0  0  0  0  0  0  0
  -22.6110   39.3510   21.8590 O   0  5  0  0  0  0  0  0  0  0  0  0
  -22.4930   38.8730   24.3120 O   0  0  0  0  0  0  0  0  0  0  0  0
  -19.9400   46.9280   30.8690 C   0  0  0  0  0  0  0  0  0  0  0  0
  -20.7950   43.2620   30.9140 O   0  0  0  0  0  0  0  0  0  0  0  0
  -13.1610   47.4340   31.3660 S   0  0  0  0  0  0  0  0  0  0  0  0
  1 18  2  0  0  0  0
  2  5  1  0  0  0  0
  2 62  1  6  0  0  0
  2 18  1  0  0  0  0
  3  5  1  0  0  0  0
  3 46  1  0  0  0  0
  4 44  2  0  0  0  0
  4 51  1  0  0  0  0
  4 20  1  0  0  0  0
  5  6  1  0  0  0  0
  5 61  1  0  0  0  0
  7 36  1  0  0  0  0
  7 54  2  6  0  0  0
  7 56  1  0  0  0  0
  7 52  1  0  0  0  0
  8 48  2  1  0  0  0
  8 50  1  0  0  0  0
  8 52  1  0  0  0  0
  8 46  1  0  0  0  0
  9 58  2  6  0  0  0
  9 59  1  0  0  0  0
  9 60  1  0  0  0  0
  9 29  1  0  0  0  0
 10 11  1  0  0  0  0
 10 63  1  0  0  0  0
 11 12  1  0  0  0  0
 12 13  1  0  0  0  0
 13 14  2  0  0  0  0
 13 15  1  0  0  0  0
 15 16  1  0  0  0  0
 16 17  1  0  0  0  0
 17 18  1  0  0  0  0
 19 43  1  1  0  0  0
 19 23  1  0  0  0  0
 19 33  1  0  0  0  0
 20 24  1  0  0  0  0
 21 22  2  0  0  0  0
 21 38  1  0  0  0  0
 22 27  1  0  0  0  0
 23 25  1  6  0  0  0
 23 26  1  0  0  0  0
 24 28  1  0  0  0  0
 26 29  1  6  0  0  0
 26 31  1  0  0  0  0
 27 30  2  0  0  0  0
 28 32  1  0  0  0  0
 30 34  1  0  0  0  0
 30 43  1  0  0  0  0
 31 33  1  0  0  0  0
 31 35  1  1  0  0  0
 32 37  2  0  0  0  0
 32 39  1  0  0  0  0
 34 38  2  0  0  0  0
 34 41  1  0  0  0  0
 35 36  1  0  0  0  0
 38 40  1  0  0  0  0
 39 63  1  0  0  0  0
 41 42  2  0  0  0  0
 42 43  1  0  0  0  0
 44 47  1  0  0  0  0
 44 49  1  0  0  0  0
 45 47  2  0  0  0  0
 45 51  1  0  0  0  0
 47 53  1  0  0  0  0
 49 55  2  0  0  0  0
 53 57  2  0  0  0  0
 55 57  1  0  0  0  0
M  CHG  3  48  -1  54  -1  59  -1
M  END
$$$$
