6 

Cr    2.20500   2.20500   1.45500   0.000237728739337   0.000237703889956  -0.000130850300593
Cr    0.00000   0.00000   0.00000   0.000182321749455   0.000182343368082   0.000072709431642
O    0.88200   3.52800   1.45500   0.005716404200509  -0.005534237757179  -0.000295842310108
O    3.52800   0.88200   1.45500  -0.005534211154387   0.005716430491423  -0.000295833368508
O    1.32300   1.32300   0.00000  -0.005560006008461  -0.005560012301781   0.000290291252837
O    3.08700   3.08700   0.00000   0.005713960380544   0.005713985244469   0.000290499231009
