4 

Al    1.55508   0.89812   0.00253  -0.000011531423745  -0.000055297394563  -0.000265569304251
Al   -0.00009   1.79519   2.49258   0.000011528381876   0.000055298343947  -0.000265570706158
N    1.55505   0.89799   1.90010  -0.000002075714167  -0.000010920861387   0.000176382472859
N   -0.00006   1.79532   4.39015   0.000002078514963   0.000010921746664   0.000176376660686
