
     RDKit          3D

 25 26  0  0  0  0  0  0  0  0999 V2000
   -1.0127   -0.4007   -1.0743 C   0  0  0  0  0  0  0  0  0  0  0  0
    1.2722   -1.2990   -1.7369 C   0  0  0  0  0  0  0  0  0  0  0  0
    3.7270    2.6748   -0.4828 O   0  0  0  0  0  0  0  0  0  0  0  0
   -3.1424    0.6382    2.0764 C   0  0  0  0  0  0  0  0  0  0  0  0
   -3.6362    1.7996    2.9190 C   0  0  0  0  0  0  0  0  0  0  0  0
    3.4428   -5.0512   -1.4467 C   0  0  0  0  0  0  0  0  0  0  0  0
   -0.1922    2.4464    1.0744 C   0  0  0  0  0  0  0  0  0  0  0  0
    1.3787   -3.8229   -1.4433 C   0  0  0  0  0  0  0  0  0  0  0  0
   -2.4299   -1.5522    0.5358 C   0  0  0  0  0  0  0  0  0  0  0  0
    1.7546    2.0722   -1.2634 O   0  0  0  0  0  0  0  0  0  0  0  0
   -1.8814   -0.3238    0.2044 C   0  0  0  0  0  0  0  0  0  0  0  0
    0.3268    3.7356    0.4040 C   0  0  0  0  0  0  0  0  0  0  0  0
    0.1379   -1.2571   -0.8240 N   0  0  0  0  0  0  0  0  0  0  0  0
   -3.6544   -0.6197    2.3555 C   0  0  0  0  0  0  0  0  0  0  0  0
    2.5024    2.7638   -0.5247 C   0  0  0  0  0  0  0  0  0  0  0  0
   -0.7341    0.8583   -1.6666 O   0  0  0  0  0  0  0  0  0  0  0  0
    2.0593   -2.6203   -1.6045 C   0  0  0  0  0  0  0  0  0  0  0  0
   -3.2977   -1.7150    1.5889 C   0  0  0  0  0  0  0  0  0  0  0  0
   -1.6836    2.1928    0.7516 C   0  0  0  0  0  0  0  0  0  0  0  0
    4.1312   -3.8605   -1.5976 C   0  0  0  0  0  0  0  0  0  0  0  0
   -0.1521    3.8950   -0.9262 O   0  0  0  0  0  0  0  0  0  0  0  0
    2.0605   -5.0182   -1.3665 C   0  0  0  0  0  0  0  0  0  0  0  0
    3.4474   -2.6536   -1.6657 C   0  0  0  0  0  0  0  0  0  0  0  0
    1.8611    3.8361    0.3622 C   0  0  0  0  0  0  0  0  0  0  0  0
   -2.2092    0.8039    1.0202 C   0  0  0  0  0  0  0  0  0  0  0  0
  1 11  1  0
  1 13  1  0
  1 16  1  0
  2 13  1  0
  2 17  1  0
  3 15  1  0
  4  5  1  0
  4 14  2  0
  4 25  1  0
  6 20  2  0
  6 22  1  0
  7 12  1  0
  7 19  1  0
  8 17  1  0
  8 22  2  0
  9 11  1  0
  9 18  2  0
 10 15  2  0
 11 25  2  0
 12 21  1  0
 12 24  1  0
 14 18  1  0
 15 24  1  0
 17 23  2  0
 19 25  1  0
 20 23  1  0
M  CHG  1   3  -1
M  END
$$$$
